
---------- Begin Simulation Statistics ----------
simSeconds                                   0.385062                       # Number of seconds simulated (Second)
simTicks                                 385062077000                       # Number of ticks simulated (Tick)
finalTick                                385062077000                       # Number of ticks from beginning of simulation (restored from checkpoints and never reset) (Tick)
simFreq                                  1000000000000                       # The number of ticks per simulated second ((Tick/Second))
hostSeconds                                    457.87                       # Real time elapsed on the host (Second)
hostTickRate                                840987816                       # The number of ticks simulated per host second (ticks/s) ((Tick/Second))
hostMemory                                  405288064                       # Number of bytes of host memory used (Byte)
simInsts                                    285729043                       # Number of instructions simulated (Count)
simOps                                      311580782                       # Number of ops (including micro ops) simulated (Count)
hostInstRate                                   624041                       # Simulator instruction rate (inst/s) ((Count/Second))
hostOpRate                                     680502                       # Simulator op (including micro ops) rate (op/s) ((Count/Second))
system.clk_domain.clock                          1000                       # Clock period in ticks (Tick)
system.cpu.numCycles                        770124154                       # Number of cpu cycles simulated (Cycle)
system.cpu.cpi                               2.695295                       # CPI: cycles per instruction (core level) ((Cycle/Count))
system.cpu.ipc                               0.371017                       # IPC: instructions per cycle (core level) ((Count/Cycle))
system.cpu.numWorkItemsStarted                      0                       # Number of work items this cpu started (Count)
system.cpu.numWorkItemsCompleted                    0                       # Number of work items this cpu completed (Count)
system.cpu.issuedInstType_0::No_OpClass            41      0.00%      0.00% # Number of insts issued per FU, per thread (Count)
system.cpu.issuedInstType_0::IntAlu         209835599     67.35%     67.35% # Number of insts issued per FU, per thread (Count)
system.cpu.issuedInstType_0::IntMult          2200038      0.71%     68.05% # Number of insts issued per FU, per thread (Count)
system.cpu.issuedInstType_0::IntDiv            200004      0.06%     68.12% # Number of insts issued per FU, per thread (Count)
system.cpu.issuedInstType_0::FloatAdd               0      0.00%     68.12% # Number of insts issued per FU, per thread (Count)
system.cpu.issuedInstType_0::FloatCmp               0      0.00%     68.12% # Number of insts issued per FU, per thread (Count)
system.cpu.issuedInstType_0::FloatCvt               0      0.00%     68.12% # Number of insts issued per FU, per thread (Count)
system.cpu.issuedInstType_0::FloatMult              0      0.00%     68.12% # Number of insts issued per FU, per thread (Count)
system.cpu.issuedInstType_0::FloatMultAcc            0      0.00%     68.12% # Number of insts issued per FU, per thread (Count)
system.cpu.issuedInstType_0::FloatDiv               0      0.00%     68.12% # Number of insts issued per FU, per thread (Count)
system.cpu.issuedInstType_0::FloatMisc             15      0.00%     68.12% # Number of insts issued per FU, per thread (Count)
system.cpu.issuedInstType_0::FloatSqrt              0      0.00%     68.12% # Number of insts issued per FU, per thread (Count)
system.cpu.issuedInstType_0::SimdAdd                1      0.00%     68.12% # Number of insts issued per FU, per thread (Count)
system.cpu.issuedInstType_0::SimdAddAcc             0      0.00%     68.12% # Number of insts issued per FU, per thread (Count)
system.cpu.issuedInstType_0::SimdAlu               17      0.00%     68.12% # Number of insts issued per FU, per thread (Count)
system.cpu.issuedInstType_0::SimdCmp               46      0.00%     68.12% # Number of insts issued per FU, per thread (Count)
system.cpu.issuedInstType_0::SimdCvt                0      0.00%     68.12% # Number of insts issued per FU, per thread (Count)
system.cpu.issuedInstType_0::SimdMisc              17      0.00%     68.12% # Number of insts issued per FU, per thread (Count)
system.cpu.issuedInstType_0::SimdMult               0      0.00%     68.12% # Number of insts issued per FU, per thread (Count)
system.cpu.issuedInstType_0::SimdMultAcc            0      0.00%     68.12% # Number of insts issued per FU, per thread (Count)
system.cpu.issuedInstType_0::SimdMatMultAcc            0      0.00%     68.12% # Number of insts issued per FU, per thread (Count)
system.cpu.issuedInstType_0::SimdShift             10      0.00%     68.12% # Number of insts issued per FU, per thread (Count)
system.cpu.issuedInstType_0::SimdShiftAcc            0      0.00%     68.12% # Number of insts issued per FU, per thread (Count)
system.cpu.issuedInstType_0::SimdDiv                0      0.00%     68.12% # Number of insts issued per FU, per thread (Count)
system.cpu.issuedInstType_0::SimdSqrt               0      0.00%     68.12% # Number of insts issued per FU, per thread (Count)
system.cpu.issuedInstType_0::SimdFloatAdd            0      0.00%     68.12% # Number of insts issued per FU, per thread (Count)
system.cpu.issuedInstType_0::SimdFloatAlu            0      0.00%     68.12% # Number of insts issued per FU, per thread (Count)
system.cpu.issuedInstType_0::SimdFloatCmp            0      0.00%     68.12% # Number of insts issued per FU, per thread (Count)
system.cpu.issuedInstType_0::SimdFloatCvt            0      0.00%     68.12% # Number of insts issued per FU, per thread (Count)
system.cpu.issuedInstType_0::SimdFloatDiv            0      0.00%     68.12% # Number of insts issued per FU, per thread (Count)
system.cpu.issuedInstType_0::SimdFloatMisc            0      0.00%     68.12% # Number of insts issued per FU, per thread (Count)
system.cpu.issuedInstType_0::SimdFloatMult            0      0.00%     68.12% # Number of insts issued per FU, per thread (Count)
system.cpu.issuedInstType_0::SimdFloatMultAcc            0      0.00%     68.12% # Number of insts issued per FU, per thread (Count)
system.cpu.issuedInstType_0::SimdFloatMatMultAcc            0      0.00%     68.12% # Number of insts issued per FU, per thread (Count)
system.cpu.issuedInstType_0::SimdFloatSqrt            0      0.00%     68.12% # Number of insts issued per FU, per thread (Count)
system.cpu.issuedInstType_0::SimdReduceAdd            0      0.00%     68.12% # Number of insts issued per FU, per thread (Count)
system.cpu.issuedInstType_0::SimdReduceAlu            0      0.00%     68.12% # Number of insts issued per FU, per thread (Count)
system.cpu.issuedInstType_0::SimdReduceCmp            0      0.00%     68.12% # Number of insts issued per FU, per thread (Count)
system.cpu.issuedInstType_0::SimdFloatReduceAdd            0      0.00%     68.12% # Number of insts issued per FU, per thread (Count)
system.cpu.issuedInstType_0::SimdFloatReduceCmp            0      0.00%     68.12% # Number of insts issued per FU, per thread (Count)
system.cpu.issuedInstType_0::SimdAes                0      0.00%     68.12% # Number of insts issued per FU, per thread (Count)
system.cpu.issuedInstType_0::SimdAesMix             0      0.00%     68.12% # Number of insts issued per FU, per thread (Count)
system.cpu.issuedInstType_0::SimdSha1Hash            0      0.00%     68.12% # Number of insts issued per FU, per thread (Count)
system.cpu.issuedInstType_0::SimdSha1Hash2            0      0.00%     68.12% # Number of insts issued per FU, per thread (Count)
system.cpu.issuedInstType_0::SimdSha256Hash            0      0.00%     68.12% # Number of insts issued per FU, per thread (Count)
system.cpu.issuedInstType_0::SimdSha256Hash2            0      0.00%     68.12% # Number of insts issued per FU, per thread (Count)
system.cpu.issuedInstType_0::SimdShaSigma2            0      0.00%     68.12% # Number of insts issued per FU, per thread (Count)
system.cpu.issuedInstType_0::SimdShaSigma3            0      0.00%     68.12% # Number of insts issued per FU, per thread (Count)
system.cpu.issuedInstType_0::SimdSha3               0      0.00%     68.12% # Number of insts issued per FU, per thread (Count)
system.cpu.issuedInstType_0::SimdSm4e               0      0.00%     68.12% # Number of insts issued per FU, per thread (Count)
system.cpu.issuedInstType_0::SimdCrc                0      0.00%     68.12% # Number of insts issued per FU, per thread (Count)
system.cpu.issuedInstType_0::SimdPredAlu            0      0.00%     68.12% # Number of insts issued per FU, per thread (Count)
system.cpu.issuedInstType_0::SimdDotProd            0      0.00%     68.12% # Number of insts issued per FU, per thread (Count)
system.cpu.issuedInstType_0::Matrix                 0      0.00%     68.12% # Number of insts issued per FU, per thread (Count)
system.cpu.issuedInstType_0::MatrixMov              0      0.00%     68.12% # Number of insts issued per FU, per thread (Count)
system.cpu.issuedInstType_0::MatrixOP               0      0.00%     68.12% # Number of insts issued per FU, per thread (Count)
system.cpu.issuedInstType_0::MemRead         55434236     17.79%     85.91% # Number of insts issued per FU, per thread (Count)
system.cpu.issuedInstType_0::MemWrite        43110699     13.84%     99.74% # Number of insts issued per FU, per thread (Count)
system.cpu.issuedInstType_0::FloatMemRead            0      0.00%     99.74% # Number of insts issued per FU, per thread (Count)
system.cpu.issuedInstType_0::FloatMemWrite            0      0.00%     99.74% # Number of insts issued per FU, per thread (Count)
system.cpu.issuedInstType_0::InstPrefetch            0      0.00%     99.74% # Number of insts issued per FU, per thread (Count)
system.cpu.issuedInstType_0::SimdUnitStrideLoad            0      0.00%     99.74% # Number of insts issued per FU, per thread (Count)
system.cpu.issuedInstType_0::SimdUnitStrideStore            0      0.00%     99.74% # Number of insts issued per FU, per thread (Count)
system.cpu.issuedInstType_0::SimdUnitStrideMaskLoad            0      0.00%     99.74% # Number of insts issued per FU, per thread (Count)
system.cpu.issuedInstType_0::SimdUnitStrideMaskStore            0      0.00%     99.74% # Number of insts issued per FU, per thread (Count)
system.cpu.issuedInstType_0::SimdStridedLoad            0      0.00%     99.74% # Number of insts issued per FU, per thread (Count)
system.cpu.issuedInstType_0::SimdStridedStore            0      0.00%     99.74% # Number of insts issued per FU, per thread (Count)
system.cpu.issuedInstType_0::SimdIndexedLoad            0      0.00%     99.74% # Number of insts issued per FU, per thread (Count)
system.cpu.issuedInstType_0::SimdIndexedStore            0      0.00%     99.74% # Number of insts issued per FU, per thread (Count)
system.cpu.issuedInstType_0::SimdWholeRegisterLoad            0      0.00%     99.74% # Number of insts issued per FU, per thread (Count)
system.cpu.issuedInstType_0::SimdWholeRegisterStore            0      0.00%     99.74% # Number of insts issued per FU, per thread (Count)
system.cpu.issuedInstType_0::SimdUnitStrideFaultOnlyFirstLoad            0      0.00%     99.74% # Number of insts issued per FU, per thread (Count)
system.cpu.issuedInstType_0::SimdUnitStrideSegmentedLoad            0      0.00%     99.74% # Number of insts issued per FU, per thread (Count)
system.cpu.issuedInstType_0::SimdUnitStrideSegmentedStore            0      0.00%     99.74% # Number of insts issued per FU, per thread (Count)
system.cpu.issuedInstType_0::SimdUnitStrideSegmentedFaultOnlyFirstLoad            0      0.00%     99.74% # Number of insts issued per FU, per thread (Count)
system.cpu.issuedInstType_0::SimdStrideSegmentedLoad            0      0.00%     99.74% # Number of insts issued per FU, per thread (Count)
system.cpu.issuedInstType_0::SimdStrideSegmentedStore            0      0.00%     99.74% # Number of insts issued per FU, per thread (Count)
system.cpu.issuedInstType_0::SimdExt                0      0.00%     99.74% # Number of insts issued per FU, per thread (Count)
system.cpu.issuedInstType_0::SimdFloatExt            0      0.00%     99.74% # Number of insts issued per FU, per thread (Count)
system.cpu.issuedInstType_0::SimdConfig             0      0.00%     99.74% # Number of insts issued per FU, per thread (Count)
system.cpu.issuedInstType_0::SimdBf16Add            0      0.00%     99.74% # Number of insts issued per FU, per thread (Count)
system.cpu.issuedInstType_0::SimdBf16Cmp            0      0.00%     99.74% # Number of insts issued per FU, per thread (Count)
system.cpu.issuedInstType_0::SimdBf16Cvt            0      0.00%     99.74% # Number of insts issued per FU, per thread (Count)
system.cpu.issuedInstType_0::SimdBf16DotProd            0      0.00%     99.74% # Number of insts issued per FU, per thread (Count)
system.cpu.issuedInstType_0::SimdBf16MatMultAcc            0      0.00%     99.74% # Number of insts issued per FU, per thread (Count)
system.cpu.issuedInstType_0::SimdBf16Mult            0      0.00%     99.74% # Number of insts issued per FU, per thread (Count)
system.cpu.issuedInstType_0::SimdBf16MultAcc            0      0.00%     99.74% # Number of insts issued per FU, per thread (Count)
system.cpu.issuedInstType_0::Bf16Cvt                0      0.00%     99.74% # Number of insts issued per FU, per thread (Count)
system.cpu.issuedInstType_0::System            800059      0.26%    100.00% # Number of insts issued per FU, per thread (Count)
system.cpu.issuedInstType_0::total          311580782                       # Number of insts issued per FU, per thread (Count)
system.cpu.commitStats0.numInsts            285729043                       # Number of instructions committed (thread level) (Count)
system.cpu.commitStats0.numOps              311580782                       # Number of ops (including micro ops) committed (thread level) (Count)
system.cpu.commitStats0.numInstsNotNOP      285728962                       # Number of instructions committed excluding NOPs or prefetches (Count)
system.cpu.commitStats0.numOpsNotNOP        311580701                       # Number of Ops (including micro ops) Simulated (Count)
system.cpu.commitStats0.numUserInsts        285729043                       # Numbrer of instructions committed in user mode (Count)
system.cpu.commitStats0.numUserOps          311580782                       # Number of ops committed in user mode (Count)
system.cpu.commitStats0.ratioUserInsts              1                       # Ratio of instructions committed in user mode (Ratio)
system.cpu.commitStats0.ratioUserOps                1                       # Ratio of ops committed in user mode (Ratio)
system.cpu.commitStats0.cpi                  2.695295                       # CPI: cycles per instruction (thread level) ((Cycle/Count))
system.cpu.commitStats0.ipc                  0.371017                       # IPC: instructions per cycle (thread level) ((Count/Cycle))
system.cpu.commitStats0.numMemRefs           98544935                       # Number of memory references committed (Count)
system.cpu.commitStats0.numFpInsts                  0                       # Number of float instructions (Count)
system.cpu.commitStats0.numIntInsts         273886194                       # Number of integer instructions (Count)
system.cpu.commitStats0.numLoadInsts         55434236                       # Number of load instructions (Count)
system.cpu.commitStats0.numStoreInsts        43110699                       # Number of store instructions (Count)
system.cpu.commitStats0.numVecInsts           5624928                       # Number of vector instructions (Count)
system.cpu.commitStats0.committedInstType::No_OpClass           41      0.00%      0.00% # Class of committed instruction. (Count)
system.cpu.commitStats0.committedInstType::IntAlu    209835599     67.35%     67.35% # Class of committed instruction. (Count)
system.cpu.commitStats0.committedInstType::IntMult      2200038      0.71%     68.05% # Class of committed instruction. (Count)
system.cpu.commitStats0.committedInstType::IntDiv       200004      0.06%     68.12% # Class of committed instruction. (Count)
system.cpu.commitStats0.committedInstType::FloatAdd            0      0.00%     68.12% # Class of committed instruction. (Count)
system.cpu.commitStats0.committedInstType::FloatCmp            0      0.00%     68.12% # Class of committed instruction. (Count)
system.cpu.commitStats0.committedInstType::FloatCvt            0      0.00%     68.12% # Class of committed instruction. (Count)
system.cpu.commitStats0.committedInstType::FloatMult            0      0.00%     68.12% # Class of committed instruction. (Count)
system.cpu.commitStats0.committedInstType::FloatMultAcc            0      0.00%     68.12% # Class of committed instruction. (Count)
system.cpu.commitStats0.committedInstType::FloatDiv            0      0.00%     68.12% # Class of committed instruction. (Count)
system.cpu.commitStats0.committedInstType::FloatMisc           15      0.00%     68.12% # Class of committed instruction. (Count)
system.cpu.commitStats0.committedInstType::FloatSqrt            0      0.00%     68.12% # Class of committed instruction. (Count)
system.cpu.commitStats0.committedInstType::SimdAdd            1      0.00%     68.12% # Class of committed instruction. (Count)
system.cpu.commitStats0.committedInstType::SimdAddAcc            0      0.00%     68.12% # Class of committed instruction. (Count)
system.cpu.commitStats0.committedInstType::SimdAlu           17      0.00%     68.12% # Class of committed instruction. (Count)
system.cpu.commitStats0.committedInstType::SimdCmp           46      0.00%     68.12% # Class of committed instruction. (Count)
system.cpu.commitStats0.committedInstType::SimdCvt            0      0.00%     68.12% # Class of committed instruction. (Count)
system.cpu.commitStats0.committedInstType::SimdMisc           17      0.00%     68.12% # Class of committed instruction. (Count)
system.cpu.commitStats0.committedInstType::SimdMult            0      0.00%     68.12% # Class of committed instruction. (Count)
system.cpu.commitStats0.committedInstType::SimdMultAcc            0      0.00%     68.12% # Class of committed instruction. (Count)
system.cpu.commitStats0.committedInstType::SimdMatMultAcc            0      0.00%     68.12% # Class of committed instruction. (Count)
system.cpu.commitStats0.committedInstType::SimdShift           10      0.00%     68.12% # Class of committed instruction. (Count)
system.cpu.commitStats0.committedInstType::SimdShiftAcc            0      0.00%     68.12% # Class of committed instruction. (Count)
system.cpu.commitStats0.committedInstType::SimdDiv            0      0.00%     68.12% # Class of committed instruction. (Count)
system.cpu.commitStats0.committedInstType::SimdSqrt            0      0.00%     68.12% # Class of committed instruction. (Count)
system.cpu.commitStats0.committedInstType::SimdFloatAdd            0      0.00%     68.12% # Class of committed instruction. (Count)
system.cpu.commitStats0.committedInstType::SimdFloatAlu            0      0.00%     68.12% # Class of committed instruction. (Count)
system.cpu.commitStats0.committedInstType::SimdFloatCmp            0      0.00%     68.12% # Class of committed instruction. (Count)
system.cpu.commitStats0.committedInstType::SimdFloatCvt            0      0.00%     68.12% # Class of committed instruction. (Count)
system.cpu.commitStats0.committedInstType::SimdFloatDiv            0      0.00%     68.12% # Class of committed instruction. (Count)
system.cpu.commitStats0.committedInstType::SimdFloatMisc            0      0.00%     68.12% # Class of committed instruction. (Count)
system.cpu.commitStats0.committedInstType::SimdFloatMult            0      0.00%     68.12% # Class of committed instruction. (Count)
system.cpu.commitStats0.committedInstType::SimdFloatMultAcc            0      0.00%     68.12% # Class of committed instruction. (Count)
system.cpu.commitStats0.committedInstType::SimdFloatMatMultAcc            0      0.00%     68.12% # Class of committed instruction. (Count)
system.cpu.commitStats0.committedInstType::SimdFloatSqrt            0      0.00%     68.12% # Class of committed instruction. (Count)
system.cpu.commitStats0.committedInstType::SimdReduceAdd            0      0.00%     68.12% # Class of committed instruction. (Count)
system.cpu.commitStats0.committedInstType::SimdReduceAlu            0      0.00%     68.12% # Class of committed instruction. (Count)
system.cpu.commitStats0.committedInstType::SimdReduceCmp            0      0.00%     68.12% # Class of committed instruction. (Count)
system.cpu.commitStats0.committedInstType::SimdFloatReduceAdd            0      0.00%     68.12% # Class of committed instruction. (Count)
system.cpu.commitStats0.committedInstType::SimdFloatReduceCmp            0      0.00%     68.12% # Class of committed instruction. (Count)
system.cpu.commitStats0.committedInstType::SimdAes            0      0.00%     68.12% # Class of committed instruction. (Count)
system.cpu.commitStats0.committedInstType::SimdAesMix            0      0.00%     68.12% # Class of committed instruction. (Count)
system.cpu.commitStats0.committedInstType::SimdSha1Hash            0      0.00%     68.12% # Class of committed instruction. (Count)
system.cpu.commitStats0.committedInstType::SimdSha1Hash2            0      0.00%     68.12% # Class of committed instruction. (Count)
system.cpu.commitStats0.committedInstType::SimdSha256Hash            0      0.00%     68.12% # Class of committed instruction. (Count)
system.cpu.commitStats0.committedInstType::SimdSha256Hash2            0      0.00%     68.12% # Class of committed instruction. (Count)
system.cpu.commitStats0.committedInstType::SimdShaSigma2            0      0.00%     68.12% # Class of committed instruction. (Count)
system.cpu.commitStats0.committedInstType::SimdShaSigma3            0      0.00%     68.12% # Class of committed instruction. (Count)
system.cpu.commitStats0.committedInstType::SimdSha3            0      0.00%     68.12% # Class of committed instruction. (Count)
system.cpu.commitStats0.committedInstType::SimdSm4e            0      0.00%     68.12% # Class of committed instruction. (Count)
system.cpu.commitStats0.committedInstType::SimdCrc            0      0.00%     68.12% # Class of committed instruction. (Count)
system.cpu.commitStats0.committedInstType::SimdPredAlu            0      0.00%     68.12% # Class of committed instruction. (Count)
system.cpu.commitStats0.committedInstType::SimdDotProd            0      0.00%     68.12% # Class of committed instruction. (Count)
system.cpu.commitStats0.committedInstType::Matrix            0      0.00%     68.12% # Class of committed instruction. (Count)
system.cpu.commitStats0.committedInstType::MatrixMov            0      0.00%     68.12% # Class of committed instruction. (Count)
system.cpu.commitStats0.committedInstType::MatrixOP            0      0.00%     68.12% # Class of committed instruction. (Count)
system.cpu.commitStats0.committedInstType::MemRead     55434236     17.79%     85.91% # Class of committed instruction. (Count)
system.cpu.commitStats0.committedInstType::MemWrite     43110699     13.84%     99.74% # Class of committed instruction. (Count)
system.cpu.commitStats0.committedInstType::FloatMemRead            0      0.00%     99.74% # Class of committed instruction. (Count)
system.cpu.commitStats0.committedInstType::FloatMemWrite            0      0.00%     99.74% # Class of committed instruction. (Count)
system.cpu.commitStats0.committedInstType::InstPrefetch            0      0.00%     99.74% # Class of committed instruction. (Count)
system.cpu.commitStats0.committedInstType::SimdUnitStrideLoad            0      0.00%     99.74% # Class of committed instruction. (Count)
system.cpu.commitStats0.committedInstType::SimdUnitStrideStore            0      0.00%     99.74% # Class of committed instruction. (Count)
system.cpu.commitStats0.committedInstType::SimdUnitStrideMaskLoad            0      0.00%     99.74% # Class of committed instruction. (Count)
system.cpu.commitStats0.committedInstType::SimdUnitStrideMaskStore            0      0.00%     99.74% # Class of committed instruction. (Count)
system.cpu.commitStats0.committedInstType::SimdStridedLoad            0      0.00%     99.74% # Class of committed instruction. (Count)
system.cpu.commitStats0.committedInstType::SimdStridedStore            0      0.00%     99.74% # Class of committed instruction. (Count)
system.cpu.commitStats0.committedInstType::SimdIndexedLoad            0      0.00%     99.74% # Class of committed instruction. (Count)
system.cpu.commitStats0.committedInstType::SimdIndexedStore            0      0.00%     99.74% # Class of committed instruction. (Count)
system.cpu.commitStats0.committedInstType::SimdWholeRegisterLoad            0      0.00%     99.74% # Class of committed instruction. (Count)
system.cpu.commitStats0.committedInstType::SimdWholeRegisterStore            0      0.00%     99.74% # Class of committed instruction. (Count)
system.cpu.commitStats0.committedInstType::SimdUnitStrideFaultOnlyFirstLoad            0      0.00%     99.74% # Class of committed instruction. (Count)
system.cpu.commitStats0.committedInstType::SimdUnitStrideSegmentedLoad            0      0.00%     99.74% # Class of committed instruction. (Count)
system.cpu.commitStats0.committedInstType::SimdUnitStrideSegmentedStore            0      0.00%     99.74% # Class of committed instruction. (Count)
system.cpu.commitStats0.committedInstType::SimdUnitStrideSegmentedFaultOnlyFirstLoad            0      0.00%     99.74% # Class of committed instruction. (Count)
system.cpu.commitStats0.committedInstType::SimdStrideSegmentedLoad            0      0.00%     99.74% # Class of committed instruction. (Count)
system.cpu.commitStats0.committedInstType::SimdStrideSegmentedStore            0      0.00%     99.74% # Class of committed instruction. (Count)
system.cpu.commitStats0.committedInstType::SimdExt            0      0.00%     99.74% # Class of committed instruction. (Count)
system.cpu.commitStats0.committedInstType::SimdFloatExt            0      0.00%     99.74% # Class of committed instruction. (Count)
system.cpu.commitStats0.committedInstType::SimdConfig            0      0.00%     99.74% # Class of committed instruction. (Count)
system.cpu.commitStats0.committedInstType::SimdBf16Add            0      0.00%     99.74% # Class of committed instruction. (Count)
system.cpu.commitStats0.committedInstType::SimdBf16Cmp            0      0.00%     99.74% # Class of committed instruction. (Count)
system.cpu.commitStats0.committedInstType::SimdBf16Cvt            0      0.00%     99.74% # Class of committed instruction. (Count)
system.cpu.commitStats0.committedInstType::SimdBf16DotProd            0      0.00%     99.74% # Class of committed instruction. (Count)
system.cpu.commitStats0.committedInstType::SimdBf16MatMultAcc            0      0.00%     99.74% # Class of committed instruction. (Count)
system.cpu.commitStats0.committedInstType::SimdBf16Mult            0      0.00%     99.74% # Class of committed instruction. (Count)
system.cpu.commitStats0.committedInstType::SimdBf16MultAcc            0      0.00%     99.74% # Class of committed instruction. (Count)
system.cpu.commitStats0.committedInstType::Bf16Cvt            0      0.00%     99.74% # Class of committed instruction. (Count)
system.cpu.commitStats0.committedInstType::System       800059      0.26%    100.00% # Class of committed instruction. (Count)
system.cpu.commitStats0.committedInstType::total    311580782                       # Class of committed instruction. (Count)
system.cpu.commitStats0.committedControl::IsControl     57922565                       # Class of control type instructions committed (Count)
system.cpu.commitStats0.committedControl::IsDirectControl     55917912                       # Class of control type instructions committed (Count)
system.cpu.commitStats0.committedControl::IsIndirectControl      2004653                       # Class of control type instructions committed (Count)
system.cpu.commitStats0.committedControl::IsCondControl     48844640                       # Class of control type instructions committed (Count)
system.cpu.commitStats0.committedControl::IsUncondControl      9077925                       # Class of control type instructions committed (Count)
system.cpu.commitStats0.committedControl::IsCall      1603567                       # Class of control type instructions committed (Count)
system.cpu.commitStats0.committedControl::IsReturn      1603562                       # Class of control type instructions committed (Count)
system.cpu.commitStats0.functionCalls         1603567                       # Number of function calls committed (Count)
system.cpu.commitStats0.numCallsReturns       3207129                       # Number of function calls and returns committed (Count)
system.cpu.dcache.demandHits::cpu.data       98552730                       # number of demand (read+write) hits (Count)
system.cpu.dcache.demandHits::total          98552730                       # number of demand (read+write) hits (Count)
system.cpu.dcache.overallHits::cpu.data      98552730                       # number of overall hits (Count)
system.cpu.dcache.overallHits::total         98552730                       # number of overall hits (Count)
system.cpu.dcache.demandMisses::cpu.data         8660                       # number of demand (read+write) misses (Count)
system.cpu.dcache.demandMisses::total            8660                       # number of demand (read+write) misses (Count)
system.cpu.dcache.overallMisses::cpu.data         8660                       # number of overall misses (Count)
system.cpu.dcache.overallMisses::total           8660                       # number of overall misses (Count)
system.cpu.dcache.demandMissLatency::cpu.data    745152000                       # number of demand (read+write) miss ticks (Tick)
system.cpu.dcache.demandMissLatency::total    745152000                       # number of demand (read+write) miss ticks (Tick)
system.cpu.dcache.overallMissLatency::cpu.data    745152000                       # number of overall miss ticks (Tick)
system.cpu.dcache.overallMissLatency::total    745152000                       # number of overall miss ticks (Tick)
system.cpu.dcache.demandAccesses::cpu.data     98561390                       # number of demand (read+write) accesses (Count)
system.cpu.dcache.demandAccesses::total      98561390                       # number of demand (read+write) accesses (Count)
system.cpu.dcache.overallAccesses::cpu.data     98561390                       # number of overall (read+write) accesses (Count)
system.cpu.dcache.overallAccesses::total     98561390                       # number of overall (read+write) accesses (Count)
system.cpu.dcache.demandMissRate::cpu.data     0.000088                       # miss rate for demand accesses (Ratio)
system.cpu.dcache.demandMissRate::total      0.000088                       # miss rate for demand accesses (Ratio)
system.cpu.dcache.overallMissRate::cpu.data     0.000088                       # miss rate for overall accesses (Ratio)
system.cpu.dcache.overallMissRate::total     0.000088                       # miss rate for overall accesses (Ratio)
system.cpu.dcache.demandAvgMissLatency::cpu.data 86045.265589                       # average overall miss latency in ticks ((Tick/Count))
system.cpu.dcache.demandAvgMissLatency::total 86045.265589                       # average overall miss latency in ticks ((Tick/Count))
system.cpu.dcache.overallAvgMissLatency::cpu.data 86045.265589                       # average overall miss latency ((Tick/Count))
system.cpu.dcache.overallAvgMissLatency::total 86045.265589                       # average overall miss latency ((Tick/Count))
system.cpu.dcache.blockedCycles::no_mshrs            0                       # number of cycles access was blocked (Cycle)
system.cpu.dcache.blockedCycles::no_wbuffers            0                       # number of cycles access was blocked (Cycle)
system.cpu.dcache.blockedCycles::no_targets            0                       # number of cycles access was blocked (Cycle)
system.cpu.dcache.blockedCauses::no_mshrs            0                       # number of times access was blocked (Count)
system.cpu.dcache.blockedCauses::no_wbuffers            0                       # number of times access was blocked (Count)
system.cpu.dcache.blockedCauses::no_targets            0                       # number of times access was blocked (Count)
system.cpu.dcache.avgBlocked::no_mshrs            nan                       # average number of cycles each access was blocked ((Cycle/Count))
system.cpu.dcache.avgBlocked::no_wbuffers          nan                       # average number of cycles each access was blocked ((Cycle/Count))
system.cpu.dcache.avgBlocked::no_targets          nan                       # average number of cycles each access was blocked ((Cycle/Count))
system.cpu.dcache.writebacks::writebacks         3263                       # number of writebacks (Count)
system.cpu.dcache.writebacks::total              3263                       # number of writebacks (Count)
system.cpu.dcache.demandMshrMisses::cpu.data         8660                       # number of demand (read+write) MSHR misses (Count)
system.cpu.dcache.demandMshrMisses::total         8660                       # number of demand (read+write) MSHR misses (Count)
system.cpu.dcache.overallMshrMisses::cpu.data         8660                       # number of overall MSHR misses (Count)
system.cpu.dcache.overallMshrMisses::total         8660                       # number of overall MSHR misses (Count)
system.cpu.dcache.demandMshrMissLatency::cpu.data    736492000                       # number of demand (read+write) MSHR miss ticks (Tick)
system.cpu.dcache.demandMshrMissLatency::total    736492000                       # number of demand (read+write) MSHR miss ticks (Tick)
system.cpu.dcache.overallMshrMissLatency::cpu.data    736492000                       # number of overall MSHR miss ticks (Tick)
system.cpu.dcache.overallMshrMissLatency::total    736492000                       # number of overall MSHR miss ticks (Tick)
system.cpu.dcache.demandMshrMissRate::cpu.data     0.000088                       # mshr miss ratio for demand accesses (Ratio)
system.cpu.dcache.demandMshrMissRate::total     0.000088                       # mshr miss ratio for demand accesses (Ratio)
system.cpu.dcache.overallMshrMissRate::cpu.data     0.000088                       # mshr miss ratio for overall accesses (Ratio)
system.cpu.dcache.overallMshrMissRate::total     0.000088                       # mshr miss ratio for overall accesses (Ratio)
system.cpu.dcache.demandAvgMshrMissLatency::cpu.data 85045.265589                       # average overall mshr miss latency ((Tick/Count))
system.cpu.dcache.demandAvgMshrMissLatency::total 85045.265589                       # average overall mshr miss latency ((Tick/Count))
system.cpu.dcache.overallAvgMshrMissLatency::cpu.data 85045.265589                       # average overall mshr miss latency ((Tick/Count))
system.cpu.dcache.overallAvgMshrMissLatency::total 85045.265589                       # average overall mshr miss latency ((Tick/Count))
system.cpu.dcache.replacements                   8151                       # number of replacements (Count)
system.cpu.dcache.LoadLockedReq.hits::cpu.data            3                       # number of LoadLockedReq hits (Count)
system.cpu.dcache.LoadLockedReq.hits::total            3                       # number of LoadLockedReq hits (Count)
system.cpu.dcache.LoadLockedReq.misses::cpu.data            1                       # number of LoadLockedReq misses (Count)
system.cpu.dcache.LoadLockedReq.misses::total            1                       # number of LoadLockedReq misses (Count)
system.cpu.dcache.LoadLockedReq.missLatency::cpu.data        65000                       # number of LoadLockedReq miss ticks (Tick)
system.cpu.dcache.LoadLockedReq.missLatency::total        65000                       # number of LoadLockedReq miss ticks (Tick)
system.cpu.dcache.LoadLockedReq.accesses::cpu.data            4                       # number of LoadLockedReq accesses(hits+misses) (Count)
system.cpu.dcache.LoadLockedReq.accesses::total            4                       # number of LoadLockedReq accesses(hits+misses) (Count)
system.cpu.dcache.LoadLockedReq.missRate::cpu.data     0.250000                       # miss rate for LoadLockedReq accesses (Ratio)
system.cpu.dcache.LoadLockedReq.missRate::total     0.250000                       # miss rate for LoadLockedReq accesses (Ratio)
system.cpu.dcache.LoadLockedReq.avgMissLatency::cpu.data        65000                       # average LoadLockedReq miss latency ((Tick/Count))
system.cpu.dcache.LoadLockedReq.avgMissLatency::total        65000                       # average LoadLockedReq miss latency ((Tick/Count))
system.cpu.dcache.LoadLockedReq.mshrMisses::cpu.data            1                       # number of LoadLockedReq MSHR misses (Count)
system.cpu.dcache.LoadLockedReq.mshrMisses::total            1                       # number of LoadLockedReq MSHR misses (Count)
system.cpu.dcache.LoadLockedReq.mshrMissLatency::cpu.data        64000                       # number of LoadLockedReq MSHR miss ticks (Tick)
system.cpu.dcache.LoadLockedReq.mshrMissLatency::total        64000                       # number of LoadLockedReq MSHR miss ticks (Tick)
system.cpu.dcache.LoadLockedReq.mshrMissRate::cpu.data     0.250000                       # mshr miss rate for LoadLockedReq accesses (Ratio)
system.cpu.dcache.LoadLockedReq.mshrMissRate::total     0.250000                       # mshr miss rate for LoadLockedReq accesses (Ratio)
system.cpu.dcache.LoadLockedReq.avgMshrMissLatency::cpu.data        64000                       # average LoadLockedReq mshr miss latency ((Tick/Count))
system.cpu.dcache.LoadLockedReq.avgMshrMissLatency::total        64000                       # average LoadLockedReq mshr miss latency ((Tick/Count))
system.cpu.dcache.ReadReq.hits::cpu.data     55441198                       # number of ReadReq hits (Count)
system.cpu.dcache.ReadReq.hits::total        55441198                       # number of ReadReq hits (Count)
system.cpu.dcache.ReadReq.misses::cpu.data         5421                       # number of ReadReq misses (Count)
system.cpu.dcache.ReadReq.misses::total          5421                       # number of ReadReq misses (Count)
system.cpu.dcache.ReadReq.missLatency::cpu.data    551474000                       # number of ReadReq miss ticks (Tick)
system.cpu.dcache.ReadReq.missLatency::total    551474000                       # number of ReadReq miss ticks (Tick)
system.cpu.dcache.ReadReq.accesses::cpu.data     55446619                       # number of ReadReq accesses(hits+misses) (Count)
system.cpu.dcache.ReadReq.accesses::total     55446619                       # number of ReadReq accesses(hits+misses) (Count)
system.cpu.dcache.ReadReq.missRate::cpu.data     0.000098                       # miss rate for ReadReq accesses (Ratio)
system.cpu.dcache.ReadReq.missRate::total     0.000098                       # miss rate for ReadReq accesses (Ratio)
system.cpu.dcache.ReadReq.avgMissLatency::cpu.data 101729.201254                       # average ReadReq miss latency ((Tick/Count))
system.cpu.dcache.ReadReq.avgMissLatency::total 101729.201254                       # average ReadReq miss latency ((Tick/Count))
system.cpu.dcache.ReadReq.mshrMisses::cpu.data         5421                       # number of ReadReq MSHR misses (Count)
system.cpu.dcache.ReadReq.mshrMisses::total         5421                       # number of ReadReq MSHR misses (Count)
system.cpu.dcache.ReadReq.mshrMissLatency::cpu.data    546053000                       # number of ReadReq MSHR miss ticks (Tick)
system.cpu.dcache.ReadReq.mshrMissLatency::total    546053000                       # number of ReadReq MSHR miss ticks (Tick)
system.cpu.dcache.ReadReq.mshrMissRate::cpu.data     0.000098                       # mshr miss rate for ReadReq accesses (Ratio)
system.cpu.dcache.ReadReq.mshrMissRate::total     0.000098                       # mshr miss rate for ReadReq accesses (Ratio)
system.cpu.dcache.ReadReq.avgMshrMissLatency::cpu.data 100729.201254                       # average ReadReq mshr miss latency ((Tick/Count))
system.cpu.dcache.ReadReq.avgMshrMissLatency::total 100729.201254                       # average ReadReq mshr miss latency ((Tick/Count))
system.cpu.dcache.StoreCondReq.hits::cpu.data            4                       # number of StoreCondReq hits (Count)
system.cpu.dcache.StoreCondReq.hits::total            4                       # number of StoreCondReq hits (Count)
system.cpu.dcache.StoreCondReq.accesses::cpu.data            4                       # number of StoreCondReq accesses(hits+misses) (Count)
system.cpu.dcache.StoreCondReq.accesses::total            4                       # number of StoreCondReq accesses(hits+misses) (Count)
system.cpu.dcache.SwapReq.hits::cpu.data           24                       # number of SwapReq hits (Count)
system.cpu.dcache.SwapReq.hits::total              24                       # number of SwapReq hits (Count)
system.cpu.dcache.SwapReq.misses::cpu.data            2                       # number of SwapReq misses (Count)
system.cpu.dcache.SwapReq.misses::total             2                       # number of SwapReq misses (Count)
system.cpu.dcache.SwapReq.missLatency::cpu.data       130000                       # number of SwapReq miss ticks (Tick)
system.cpu.dcache.SwapReq.missLatency::total       130000                       # number of SwapReq miss ticks (Tick)
system.cpu.dcache.SwapReq.accesses::cpu.data           26                       # number of SwapReq accesses(hits+misses) (Count)
system.cpu.dcache.SwapReq.accesses::total           26                       # number of SwapReq accesses(hits+misses) (Count)
system.cpu.dcache.SwapReq.missRate::cpu.data     0.076923                       # miss rate for SwapReq accesses (Ratio)
system.cpu.dcache.SwapReq.missRate::total     0.076923                       # miss rate for SwapReq accesses (Ratio)
system.cpu.dcache.SwapReq.avgMissLatency::cpu.data        65000                       # average SwapReq miss latency ((Tick/Count))
system.cpu.dcache.SwapReq.avgMissLatency::total        65000                       # average SwapReq miss latency ((Tick/Count))
system.cpu.dcache.SwapReq.mshrMisses::cpu.data            2                       # number of SwapReq MSHR misses (Count)
system.cpu.dcache.SwapReq.mshrMisses::total            2                       # number of SwapReq MSHR misses (Count)
system.cpu.dcache.SwapReq.mshrMissLatency::cpu.data       128000                       # number of SwapReq MSHR miss ticks (Tick)
system.cpu.dcache.SwapReq.mshrMissLatency::total       128000                       # number of SwapReq MSHR miss ticks (Tick)
system.cpu.dcache.SwapReq.mshrMissRate::cpu.data     0.076923                       # mshr miss rate for SwapReq accesses (Ratio)
system.cpu.dcache.SwapReq.mshrMissRate::total     0.076923                       # mshr miss rate for SwapReq accesses (Ratio)
system.cpu.dcache.SwapReq.avgMshrMissLatency::cpu.data        64000                       # average SwapReq mshr miss latency ((Tick/Count))
system.cpu.dcache.SwapReq.avgMshrMissLatency::total        64000                       # average SwapReq mshr miss latency ((Tick/Count))
system.cpu.dcache.WriteLineReq.misses::cpu.data            9                       # number of WriteLineReq misses (Count)
system.cpu.dcache.WriteLineReq.misses::total            9                       # number of WriteLineReq misses (Count)
system.cpu.dcache.WriteLineReq.missLatency::cpu.data        90000                       # number of WriteLineReq miss ticks (Tick)
system.cpu.dcache.WriteLineReq.missLatency::total        90000                       # number of WriteLineReq miss ticks (Tick)
system.cpu.dcache.WriteLineReq.accesses::cpu.data            9                       # number of WriteLineReq accesses(hits+misses) (Count)
system.cpu.dcache.WriteLineReq.accesses::total            9                       # number of WriteLineReq accesses(hits+misses) (Count)
system.cpu.dcache.WriteLineReq.missRate::cpu.data            1                       # miss rate for WriteLineReq accesses (Ratio)
system.cpu.dcache.WriteLineReq.missRate::total            1                       # miss rate for WriteLineReq accesses (Ratio)
system.cpu.dcache.WriteLineReq.avgMissLatency::cpu.data        10000                       # average WriteLineReq miss latency ((Tick/Count))
system.cpu.dcache.WriteLineReq.avgMissLatency::total        10000                       # average WriteLineReq miss latency ((Tick/Count))
system.cpu.dcache.WriteLineReq.mshrMisses::cpu.data            9                       # number of WriteLineReq MSHR misses (Count)
system.cpu.dcache.WriteLineReq.mshrMisses::total            9                       # number of WriteLineReq MSHR misses (Count)
system.cpu.dcache.WriteLineReq.mshrMissLatency::cpu.data        81000                       # number of WriteLineReq MSHR miss ticks (Tick)
system.cpu.dcache.WriteLineReq.mshrMissLatency::total        81000                       # number of WriteLineReq MSHR miss ticks (Tick)
system.cpu.dcache.WriteLineReq.mshrMissRate::cpu.data            1                       # mshr miss rate for WriteLineReq accesses (Ratio)
system.cpu.dcache.WriteLineReq.mshrMissRate::total            1                       # mshr miss rate for WriteLineReq accesses (Ratio)
system.cpu.dcache.WriteLineReq.avgMshrMissLatency::cpu.data         9000                       # average WriteLineReq mshr miss latency ((Tick/Count))
system.cpu.dcache.WriteLineReq.avgMshrMissLatency::total         9000                       # average WriteLineReq mshr miss latency ((Tick/Count))
system.cpu.dcache.WriteReq.hits::cpu.data     43111532                       # number of WriteReq hits (Count)
system.cpu.dcache.WriteReq.hits::total       43111532                       # number of WriteReq hits (Count)
system.cpu.dcache.WriteReq.misses::cpu.data         3230                       # number of WriteReq misses (Count)
system.cpu.dcache.WriteReq.misses::total         3230                       # number of WriteReq misses (Count)
system.cpu.dcache.WriteReq.missLatency::cpu.data    193588000                       # number of WriteReq miss ticks (Tick)
system.cpu.dcache.WriteReq.missLatency::total    193588000                       # number of WriteReq miss ticks (Tick)
system.cpu.dcache.WriteReq.accesses::cpu.data     43114762                       # number of WriteReq accesses(hits+misses) (Count)
system.cpu.dcache.WriteReq.accesses::total     43114762                       # number of WriteReq accesses(hits+misses) (Count)
system.cpu.dcache.WriteReq.missRate::cpu.data     0.000075                       # miss rate for WriteReq accesses (Ratio)
system.cpu.dcache.WriteReq.missRate::total     0.000075                       # miss rate for WriteReq accesses (Ratio)
system.cpu.dcache.WriteReq.avgMissLatency::cpu.data 59934.365325                       # average WriteReq miss latency ((Tick/Count))
system.cpu.dcache.WriteReq.avgMissLatency::total 59934.365325                       # average WriteReq miss latency ((Tick/Count))
system.cpu.dcache.WriteReq.mshrMisses::cpu.data         3230                       # number of WriteReq MSHR misses (Count)
system.cpu.dcache.WriteReq.mshrMisses::total         3230                       # number of WriteReq MSHR misses (Count)
system.cpu.dcache.WriteReq.mshrMissLatency::cpu.data    190358000                       # number of WriteReq MSHR miss ticks (Tick)
system.cpu.dcache.WriteReq.mshrMissLatency::total    190358000                       # number of WriteReq MSHR miss ticks (Tick)
system.cpu.dcache.WriteReq.mshrMissRate::cpu.data     0.000075                       # mshr miss rate for WriteReq accesses (Ratio)
system.cpu.dcache.WriteReq.mshrMissRate::total     0.000075                       # mshr miss rate for WriteReq accesses (Ratio)
system.cpu.dcache.WriteReq.avgMshrMissLatency::cpu.data 58934.365325                       # average WriteReq mshr miss latency ((Tick/Count))
system.cpu.dcache.WriteReq.avgMshrMissLatency::total 58934.365325                       # average WriteReq mshr miss latency ((Tick/Count))
system.cpu.dcache.power_state.pwrStateResidencyTicks::UNDEFINED 385062077000                       # Cumulative time (in ticks) in various power states (Tick)
system.cpu.dcache.tags.tagsInUse           511.941643                       # Average ticks per tags in use ((Tick/Count))
system.cpu.dcache.tags.totalRefs             98561424                       # Total number of references to valid blocks. (Count)
system.cpu.dcache.tags.sampledRefs               8663                       # Sample count of references to valid blocks. (Count)
system.cpu.dcache.tags.avgRefs           11377.285467                       # Average number of references to valid blocks. ((Count/Count))
system.cpu.dcache.tags.warmupTick              150000                       # The tick when the warmup percentage was hit. (Tick)
system.cpu.dcache.tags.occupancies::cpu.data   511.941643                       # Average occupied blocks per tick, per requestor ((Count/Tick))
system.cpu.dcache.tags.avgOccs::cpu.data     0.999886                       # Average percentage of cache occupancy ((Ratio/Tick))
system.cpu.dcache.tags.avgOccs::total        0.999886                       # Average percentage of cache occupancy ((Ratio/Tick))
system.cpu.dcache.tags.occupanciesTaskId::1024          512                       # Occupied blocks per task id (Count)
system.cpu.dcache.tags.ageTaskId_1024::0           24                       # Occupied blocks per task id, per block age (Count)
system.cpu.dcache.tags.ageTaskId_1024::1           46                       # Occupied blocks per task id, per block age (Count)
system.cpu.dcache.tags.ageTaskId_1024::2           25                       # Occupied blocks per task id, per block age (Count)
system.cpu.dcache.tags.ageTaskId_1024::3           91                       # Occupied blocks per task id, per block age (Count)
system.cpu.dcache.tags.ageTaskId_1024::4          326                       # Occupied blocks per task id, per block age (Count)
system.cpu.dcache.tags.ratioOccsTaskId::1024            1                       # Ratio of occupied blocks and all blocks, per task id (Ratio)
system.cpu.dcache.tags.tagAccesses        50463457751                       # Number of tag accesses (Count)
system.cpu.dcache.tags.dataAccesses       50463457751                       # Number of data accesses (Count)
system.cpu.dcache.tags.power_state.pwrStateResidencyTicks::UNDEFINED 385062077000                       # Cumulative time (in ticks) in various power states (Tick)
system.cpu.exec_context.thread_0.numMatAluAccesses            0                       # Number of matrix alu accesses (Count)
system.cpu.exec_context.thread_0.numMatInsts            0                       # Number of matrix instructions (Count)
system.cpu.exec_context.thread_0.numIdleCycles     0.002000                       # Number of idle cycles (Cycle)
system.cpu.exec_context.thread_0.numBusyCycles 770124153.998000                       # Number of busy cycles (Cycle)
system.cpu.exec_context.thread_0.notIdleFraction     1.000000                       # Percentage of non-idle cycles (Ratio)
system.cpu.exec_context.thread_0.idleFraction     0.000000                       # Percentage of idle cycles (Ratio)
system.cpu.executeStats0.numInsts           285729043                       # Number of executed instructions (Count)
system.cpu.executeStats0.numNop                     0                       # Number of nop insts executed (Count)
system.cpu.executeStats0.numBranches         57922565                       # Number of branches executed (Count)
system.cpu.executeStats0.numLoadInsts        55434236                       # Number of load instructions executed (Count)
system.cpu.executeStats0.numStoreInsts       43110699                       # Number of stores executed (Count)
system.cpu.executeStats0.instRate            0.371017                       # Inst execution rate ((Count/Cycle))
system.cpu.executeStats0.numCCRegReads      120078339                       # Number of times the CC registers were read (Count)
system.cpu.executeStats0.numCCRegWrites     111669687                       # Number of times the CC registers were written (Count)
system.cpu.executeStats0.numFpRegWrites             0                       # Number of times the floating registers were written (Count)
system.cpu.executeStats0.numIntAluAccesses    273886194                       # Number of integer alu accesses (Count)
system.cpu.executeStats0.numIntRegReads     325720764                       # Number of times the integer registers were read (Count)
system.cpu.executeStats0.numIntRegWrites    182937840                       # Number of times the integer registers were written (Count)
system.cpu.executeStats0.numMemRefs          98544935                       # Number of memory refs (Count)
system.cpu.executeStats0.numMiscRegReads     12850135                       # Number of times the Misc registers were read (Count)
system.cpu.executeStats0.numMiscRegWrites           61                       # Number of times the Misc registers were written (Count)
system.cpu.executeStats0.numVecAluAccesses      5624928                       # Number of vector alu accesses (Count)
system.cpu.executeStats0.numVecPredRegReads           61                       # Number of times the predicate registers were read (Count)
system.cpu.executeStats0.numVecPredRegWrites           20                       # Number of times the predicate registers were written (Count)
system.cpu.executeStats0.numVecRegReads       4824944                       # Number of times the vector registers were read (Count)
system.cpu.executeStats0.numVecRegWrites       800131                       # Number of times the vector registers were written (Count)
system.cpu.executeStats0.numDiscardedOps            0                       # Number of ops (including micro ops) which were discarded before commit (Count)
system.cpu.fetchStats0.numInsts             285729410                       # Number of instructions fetched (thread level) (Count)
system.cpu.fetchStats0.numOps               311581199                       # Number of ops (including micro ops) fetched (thread level) (Count)
system.cpu.fetchStats0.fetchRate             0.371017                       # Number of inst fetches per cycle ((Count/Cycle))
system.cpu.fetchStats0.numBranches           57922565                       # Number of branches fetched (Count)
system.cpu.fetchStats0.branchRate            0.075212                       # Number of branch fetches per cycle (Ratio)
system.cpu.fetchStats0.numFetchSuspends             0                       # Number of times Execute suspended instruction fetching (Count)
system.cpu.icache.demandHits::cpu.inst      285728741                       # number of demand (read+write) hits (Count)
system.cpu.icache.demandHits::total         285728741                       # number of demand (read+write) hits (Count)
system.cpu.icache.overallHits::cpu.inst     285728741                       # number of overall hits (Count)
system.cpu.icache.overallHits::total        285728741                       # number of overall hits (Count)
system.cpu.icache.demandMisses::cpu.inst          719                       # number of demand (read+write) misses (Count)
system.cpu.icache.demandMisses::total             719                       # number of demand (read+write) misses (Count)
system.cpu.icache.overallMisses::cpu.inst          719                       # number of overall misses (Count)
system.cpu.icache.overallMisses::total            719                       # number of overall misses (Count)
system.cpu.icache.demandMissLatency::cpu.inst     42419000                       # number of demand (read+write) miss ticks (Tick)
system.cpu.icache.demandMissLatency::total     42419000                       # number of demand (read+write) miss ticks (Tick)
system.cpu.icache.overallMissLatency::cpu.inst     42419000                       # number of overall miss ticks (Tick)
system.cpu.icache.overallMissLatency::total     42419000                       # number of overall miss ticks (Tick)
system.cpu.icache.demandAccesses::cpu.inst    285729460                       # number of demand (read+write) accesses (Count)
system.cpu.icache.demandAccesses::total     285729460                       # number of demand (read+write) accesses (Count)
system.cpu.icache.overallAccesses::cpu.inst    285729460                       # number of overall (read+write) accesses (Count)
system.cpu.icache.overallAccesses::total    285729460                       # number of overall (read+write) accesses (Count)
system.cpu.icache.demandMissRate::cpu.inst     0.000003                       # miss rate for demand accesses (Ratio)
system.cpu.icache.demandMissRate::total      0.000003                       # miss rate for demand accesses (Ratio)
system.cpu.icache.overallMissRate::cpu.inst     0.000003                       # miss rate for overall accesses (Ratio)
system.cpu.icache.overallMissRate::total     0.000003                       # miss rate for overall accesses (Ratio)
system.cpu.icache.demandAvgMissLatency::cpu.inst 58997.218359                       # average overall miss latency in ticks ((Tick/Count))
system.cpu.icache.demandAvgMissLatency::total 58997.218359                       # average overall miss latency in ticks ((Tick/Count))
system.cpu.icache.overallAvgMissLatency::cpu.inst 58997.218359                       # average overall miss latency ((Tick/Count))
system.cpu.icache.overallAvgMissLatency::total 58997.218359                       # average overall miss latency ((Tick/Count))
system.cpu.icache.blockedCycles::no_mshrs            0                       # number of cycles access was blocked (Cycle)
system.cpu.icache.blockedCycles::no_wbuffers            0                       # number of cycles access was blocked (Cycle)
system.cpu.icache.blockedCycles::no_targets            0                       # number of cycles access was blocked (Cycle)
system.cpu.icache.blockedCauses::no_mshrs            0                       # number of times access was blocked (Count)
system.cpu.icache.blockedCauses::no_wbuffers            0                       # number of times access was blocked (Count)
system.cpu.icache.blockedCauses::no_targets            0                       # number of times access was blocked (Count)
system.cpu.icache.avgBlocked::no_mshrs            nan                       # average number of cycles each access was blocked ((Cycle/Count))
system.cpu.icache.avgBlocked::no_wbuffers          nan                       # average number of cycles each access was blocked ((Cycle/Count))
system.cpu.icache.avgBlocked::no_targets          nan                       # average number of cycles each access was blocked ((Cycle/Count))
system.cpu.icache.writebacks::writebacks          258                       # number of writebacks (Count)
system.cpu.icache.writebacks::total               258                       # number of writebacks (Count)
system.cpu.icache.demandMshrMisses::cpu.inst          719                       # number of demand (read+write) MSHR misses (Count)
system.cpu.icache.demandMshrMisses::total          719                       # number of demand (read+write) MSHR misses (Count)
system.cpu.icache.overallMshrMisses::cpu.inst          719                       # number of overall MSHR misses (Count)
system.cpu.icache.overallMshrMisses::total          719                       # number of overall MSHR misses (Count)
system.cpu.icache.demandMshrMissLatency::cpu.inst     41700000                       # number of demand (read+write) MSHR miss ticks (Tick)
system.cpu.icache.demandMshrMissLatency::total     41700000                       # number of demand (read+write) MSHR miss ticks (Tick)
system.cpu.icache.overallMshrMissLatency::cpu.inst     41700000                       # number of overall MSHR miss ticks (Tick)
system.cpu.icache.overallMshrMissLatency::total     41700000                       # number of overall MSHR miss ticks (Tick)
system.cpu.icache.demandMshrMissRate::cpu.inst     0.000003                       # mshr miss ratio for demand accesses (Ratio)
system.cpu.icache.demandMshrMissRate::total     0.000003                       # mshr miss ratio for demand accesses (Ratio)
system.cpu.icache.overallMshrMissRate::cpu.inst     0.000003                       # mshr miss ratio for overall accesses (Ratio)
system.cpu.icache.overallMshrMissRate::total     0.000003                       # mshr miss ratio for overall accesses (Ratio)
system.cpu.icache.demandAvgMshrMissLatency::cpu.inst 57997.218359                       # average overall mshr miss latency ((Tick/Count))
system.cpu.icache.demandAvgMshrMissLatency::total 57997.218359                       # average overall mshr miss latency ((Tick/Count))
system.cpu.icache.overallAvgMshrMissLatency::cpu.inst 57997.218359                       # average overall mshr miss latency ((Tick/Count))
system.cpu.icache.overallAvgMshrMissLatency::total 57997.218359                       # average overall mshr miss latency ((Tick/Count))
system.cpu.icache.replacements                    258                       # number of replacements (Count)
system.cpu.icache.ReadReq.hits::cpu.inst    285728741                       # number of ReadReq hits (Count)
system.cpu.icache.ReadReq.hits::total       285728741                       # number of ReadReq hits (Count)
system.cpu.icache.ReadReq.misses::cpu.inst          719                       # number of ReadReq misses (Count)
system.cpu.icache.ReadReq.misses::total           719                       # number of ReadReq misses (Count)
system.cpu.icache.ReadReq.missLatency::cpu.inst     42419000                       # number of ReadReq miss ticks (Tick)
system.cpu.icache.ReadReq.missLatency::total     42419000                       # number of ReadReq miss ticks (Tick)
system.cpu.icache.ReadReq.accesses::cpu.inst    285729460                       # number of ReadReq accesses(hits+misses) (Count)
system.cpu.icache.ReadReq.accesses::total    285729460                       # number of ReadReq accesses(hits+misses) (Count)
system.cpu.icache.ReadReq.missRate::cpu.inst     0.000003                       # miss rate for ReadReq accesses (Ratio)
system.cpu.icache.ReadReq.missRate::total     0.000003                       # miss rate for ReadReq accesses (Ratio)
system.cpu.icache.ReadReq.avgMissLatency::cpu.inst 58997.218359                       # average ReadReq miss latency ((Tick/Count))
system.cpu.icache.ReadReq.avgMissLatency::total 58997.218359                       # average ReadReq miss latency ((Tick/Count))
system.cpu.icache.ReadReq.mshrMisses::cpu.inst          719                       # number of ReadReq MSHR misses (Count)
system.cpu.icache.ReadReq.mshrMisses::total          719                       # number of ReadReq MSHR misses (Count)
system.cpu.icache.ReadReq.mshrMissLatency::cpu.inst     41700000                       # number of ReadReq MSHR miss ticks (Tick)
system.cpu.icache.ReadReq.mshrMissLatency::total     41700000                       # number of ReadReq MSHR miss ticks (Tick)
system.cpu.icache.ReadReq.mshrMissRate::cpu.inst     0.000003                       # mshr miss rate for ReadReq accesses (Ratio)
system.cpu.icache.ReadReq.mshrMissRate::total     0.000003                       # mshr miss rate for ReadReq accesses (Ratio)
system.cpu.icache.ReadReq.avgMshrMissLatency::cpu.inst 57997.218359                       # average ReadReq mshr miss latency ((Tick/Count))
system.cpu.icache.ReadReq.avgMshrMissLatency::total 57997.218359                       # average ReadReq mshr miss latency ((Tick/Count))
system.cpu.icache.power_state.pwrStateResidencyTicks::UNDEFINED 385062077000                       # Cumulative time (in ticks) in various power states (Tick)
system.cpu.icache.tags.tagsInUse           376.845401                       # Average ticks per tags in use ((Tick/Count))
system.cpu.icache.tags.totalRefs            285729460                       # Total number of references to valid blocks. (Count)
system.cpu.icache.tags.sampledRefs                719                       # Sample count of references to valid blocks. (Count)
system.cpu.icache.tags.avgRefs           397398.414465                       # Average number of references to valid blocks. ((Count/Count))
system.cpu.icache.tags.warmupTick               77000                       # The tick when the warmup percentage was hit. (Tick)
system.cpu.icache.tags.occupancies::cpu.inst   376.845401                       # Average occupied blocks per tick, per requestor ((Count/Tick))
system.cpu.icache.tags.avgOccs::cpu.inst     0.736026                       # Average percentage of cache occupancy ((Ratio/Tick))
system.cpu.icache.tags.avgOccs::total        0.736026                       # Average percentage of cache occupancy ((Ratio/Tick))
system.cpu.icache.tags.occupanciesTaskId::1024          461                       # Occupied blocks per task id (Count)
system.cpu.icache.tags.ageTaskId_1024::0           93                       # Occupied blocks per task id, per block age (Count)
system.cpu.icache.tags.ageTaskId_1024::1          123                       # Occupied blocks per task id, per block age (Count)
system.cpu.icache.tags.ageTaskId_1024::4          245                       # Occupied blocks per task id, per block age (Count)
system.cpu.icache.tags.ratioOccsTaskId::1024     0.900391                       # Ratio of occupied blocks and all blocks, per task id (Ratio)
system.cpu.icache.tags.tagAccesses          571459639                       # Number of tag accesses (Count)
system.cpu.icache.tags.dataAccesses         571459639                       # Number of data accesses (Count)
system.cpu.icache.tags.power_state.pwrStateResidencyTicks::UNDEFINED 385062077000                       # Cumulative time (in ticks) in various power states (Tick)
system.cpu.mmu.alignFaults                          0                       # Number of MMU faults due to alignment restrictions (Count)
system.cpu.mmu.prefetchFaults                       0                       # Number of MMU faults due to prefetch (Count)
system.cpu.mmu.domainFaults                         0                       # Number of MMU faults due to domain restrictions (Count)
system.cpu.mmu.permsFaults                          0                       # Number of MMU faults due to permissions restrictions (Count)
system.cpu.mmu.dtb.readHits                         0                       # Read hits (Count)
system.cpu.mmu.dtb.readMisses                       0                       # Read misses (Count)
system.cpu.mmu.dtb.writeHits                        0                       # Write hits (Count)
system.cpu.mmu.dtb.writeMisses                      0                       # Write misses (Count)
system.cpu.mmu.dtb.inserts                          0                       # Number of times an entry is inserted into the TLB (Count)
system.cpu.mmu.dtb.flushTlb                         1                       # Number of times a TLB invalidation was requested (Count)
system.cpu.mmu.dtb.flushedEntries                   0                       # Number of entries that have been flushed from TLB (Count)
system.cpu.mmu.dtb.readAccesses                     0                       # Read accesses (Count)
system.cpu.mmu.dtb.writeAccesses                    0                       # Write accesses (Count)
system.cpu.mmu.dtb.hits                             0                       # Total TLB (inst and data) hits (Count)
system.cpu.mmu.dtb.misses                           0                       # Total TLB (inst and data) misses (Count)
system.cpu.mmu.dtb.accesses                         0                       # Total TLB (inst and data) accesses (Count)
system.cpu.mmu.itb.instHits                         0                       # Inst hits (Count)
system.cpu.mmu.itb.instMisses                       0                       # Inst misses (Count)
system.cpu.mmu.itb.inserts                          0                       # Number of times an entry is inserted into the TLB (Count)
system.cpu.mmu.itb.flushTlb                         1                       # Number of times a TLB invalidation was requested (Count)
system.cpu.mmu.itb.flushedEntries                   0                       # Number of entries that have been flushed from TLB (Count)
system.cpu.mmu.itb.instAccesses                     0                       # Inst accesses (Count)
system.cpu.mmu.itb.hits                             0                       # Total TLB (inst and data) hits (Count)
system.cpu.mmu.itb.misses                           0                       # Total TLB (inst and data) misses (Count)
system.cpu.mmu.itb.accesses                         0                       # Total TLB (inst and data) accesses (Count)
system.cpu.mmu.l2_shared.instHits                   0                       # Inst hits (Count)
system.cpu.mmu.l2_shared.instMisses                 0                       # Inst misses (Count)
system.cpu.mmu.l2_shared.inserts                    0                       # Number of times an entry is inserted into the TLB (Count)
system.cpu.mmu.l2_shared.flushTlb                   1                       # Number of times a TLB invalidation was requested (Count)
system.cpu.mmu.l2_shared.flushedEntries             0                       # Number of entries that have been flushed from TLB (Count)
system.cpu.mmu.l2_shared.instAccesses               0                       # Inst accesses (Count)
system.cpu.mmu.l2_shared.hits                       0                       # Total TLB (inst and data) hits (Count)
system.cpu.mmu.l2_shared.misses                     0                       # Total TLB (inst and data) misses (Count)
system.cpu.mmu.l2_shared.accesses                   0                       # Total TLB (inst and data) accesses (Count)
system.cpu.mmu.stage2_dtb.readHits                  0                       # Read hits (Count)
system.cpu.mmu.stage2_dtb.readMisses                0                       # Read misses (Count)
system.cpu.mmu.stage2_dtb.writeHits                 0                       # Write hits (Count)
system.cpu.mmu.stage2_dtb.writeMisses               0                       # Write misses (Count)
system.cpu.mmu.stage2_dtb.inserts                   0                       # Number of times an entry is inserted into the TLB (Count)
system.cpu.mmu.stage2_dtb.flushTlb                  1                       # Number of times a TLB invalidation was requested (Count)
system.cpu.mmu.stage2_dtb.flushedEntries            0                       # Number of entries that have been flushed from TLB (Count)
system.cpu.mmu.stage2_dtb.readAccesses              0                       # Read accesses (Count)
system.cpu.mmu.stage2_dtb.writeAccesses             0                       # Write accesses (Count)
system.cpu.mmu.stage2_dtb.hits                      0                       # Total TLB (inst and data) hits (Count)
system.cpu.mmu.stage2_dtb.misses                    0                       # Total TLB (inst and data) misses (Count)
system.cpu.mmu.stage2_dtb.accesses                  0                       # Total TLB (inst and data) accesses (Count)
system.cpu.mmu.stage2_itb.instHits                  0                       # Inst hits (Count)
system.cpu.mmu.stage2_itb.instMisses                0                       # Inst misses (Count)
system.cpu.mmu.stage2_itb.inserts                   0                       # Number of times an entry is inserted into the TLB (Count)
system.cpu.mmu.stage2_itb.flushTlb                  1                       # Number of times a TLB invalidation was requested (Count)
system.cpu.mmu.stage2_itb.flushedEntries            0                       # Number of entries that have been flushed from TLB (Count)
system.cpu.mmu.stage2_itb.instAccesses              0                       # Inst accesses (Count)
system.cpu.mmu.stage2_itb.hits                      0                       # Total TLB (inst and data) hits (Count)
system.cpu.mmu.stage2_itb.misses                    0                       # Total TLB (inst and data) misses (Count)
system.cpu.mmu.stage2_itb.accesses                  0                       # Total TLB (inst and data) accesses (Count)
system.cpu.mmu.walker.instructionWalksS1            0                       # Table walker stage 1 instruction walks requested (Count)
system.cpu.mmu.walker.instructionWalksS2            0                       # Table walker stage 2 instruction walks requested (Count)
system.cpu.mmu.walker.dataWalksS1                   0                       # Table walker stage 1 data walks requested (Count)
system.cpu.mmu.walker.dataWalksS2                   0                       # Table walker stage 2 data walks requested (Count)
system.cpu.mmu.walker.requestOrigin_Requested::Data            0                       # Table walker requests started/completed, data/inst (Count)
system.cpu.mmu.walker.requestOrigin_Requested::Inst            0                       # Table walker requests started/completed, data/inst (Count)
system.cpu.mmu.walker.requestOrigin_Requested::total            0                       # Table walker requests started/completed, data/inst (Count)
system.cpu.mmu.walker.requestOrigin_Completed::Data            0                       # Table walker requests started/completed, data/inst (Count)
system.cpu.mmu.walker.requestOrigin_Completed::Inst            0                       # Table walker requests started/completed, data/inst (Count)
system.cpu.mmu.walker.requestOrigin_Completed::total            0                       # Table walker requests started/completed, data/inst (Count)
system.cpu.mmu.walker.requestOrigin::total            0                       # Table walker requests started/completed, data/inst (Count)
system.cpu.mmu.walker.walks                         0                       # Table walker walks requested (Count)
system.cpu.mmu.walker.power_state.pwrStateResidencyTicks::UNDEFINED 385062077000                       # Cumulative time (in ticks) in various power states (Tick)
system.cpu.mmu.walker.walk_unit_func_s1.power_state.pwrStateResidencyTicks::UNDEFINED 385062077000                       # Cumulative time (in ticks) in various power states (Tick)
system.cpu.mmu.walker.walk_unit_func_s2.power_state.pwrStateResidencyTicks::UNDEFINED 385062077000                       # Cumulative time (in ticks) in various power states (Tick)
system.cpu.mmu.walker.walk_units0.power_state.pwrStateResidencyTicks::UNDEFINED 385062077000                       # Cumulative time (in ticks) in various power states (Tick)
system.cpu.mmu.walker.walk_units1.power_state.pwrStateResidencyTicks::UNDEFINED 385062077000                       # Cumulative time (in ticks) in various power states (Tick)
system.cpu.mmu.walker.walk_units2.power_state.pwrStateResidencyTicks::UNDEFINED 385062077000                       # Cumulative time (in ticks) in various power states (Tick)
system.cpu.mmu.walker.walk_units3.power_state.pwrStateResidencyTicks::UNDEFINED 385062077000                       # Cumulative time (in ticks) in various power states (Tick)
system.cpu.mmu.walker.walk_units4.power_state.pwrStateResidencyTicks::UNDEFINED 385062077000                       # Cumulative time (in ticks) in various power states (Tick)
system.cpu.mmu.walker.walk_units5.power_state.pwrStateResidencyTicks::UNDEFINED 385062077000                       # Cumulative time (in ticks) in various power states (Tick)
system.cpu.mmu.walker.walk_units6.power_state.pwrStateResidencyTicks::UNDEFINED 385062077000                       # Cumulative time (in ticks) in various power states (Tick)
system.cpu.mmu.walker.walk_units7.power_state.pwrStateResidencyTicks::UNDEFINED 385062077000                       # Cumulative time (in ticks) in various power states (Tick)
system.cpu.power_state.pwrStateResidencyTicks::ON 385062077000                       # Cumulative time (in ticks) in various power states (Tick)
system.cpu.thread_0.numInsts                285729043                       # Number of Instructions committed (Count)
system.cpu.thread_0.numOps                  311580782                       # Number of Ops committed (Count)
system.cpu.thread_0.numMemRefs               98544935                       # Number of Memory References (Count)
system.cpu.workload.numSyscalls                   364                       # Number of system calls (Count)
system.cpu_clk_domain.clock                       500                       # Clock period in ticks (Tick)
system.cpu_voltage_domain.voltage                   1                       # Voltage in Volts (Volt)
system.mem_ctrls.avgPriority_writebacks::samples      3517.00                       # Average QoS priority value for accepted requests (Count)
system.mem_ctrls.avgPriority_cpu.inst::samples       713.00                       # Average QoS priority value for accepted requests (Count)
system.mem_ctrls.avgPriority_cpu.data::samples      8638.00                       # Average QoS priority value for accepted requests (Count)
system.mem_ctrls.priorityMinLatency      0.000000018750                       # per QoS priority minimum request to response latency (Second)
system.mem_ctrls.priorityMaxLatency      0.527528767250                       # per QoS priority maximum request to response latency (Second)
system.mem_ctrls.numReadWriteTurnArounds          214                       # Number of turnarounds from READ to WRITE (Count)
system.mem_ctrls.numWriteReadTurnArounds          214                       # Number of turnarounds from WRITE to READ (Count)
system.mem_ctrls.numStayReadState              120940                       # Number of times bus staying in READ state (Count)
system.mem_ctrls.numStayWriteState               3288                       # Number of times bus staying in WRITE state (Count)
system.mem_ctrls.readReqs                        9373                       # Number of read requests accepted (Count)
system.mem_ctrls.writeReqs                       3521                       # Number of write requests accepted (Count)
system.mem_ctrls.readBursts                      9373                       # Number of controller read bursts, including those serviced by the write queue (Count)
system.mem_ctrls.writeBursts                     3521                       # Number of controller write bursts, including those merged in the write queue (Count)
system.mem_ctrls.servicedByWrQ                     22                       # Number of controller read bursts serviced by the write queue (Count)
system.mem_ctrls.mergedWrBursts                     4                       # Number of controller write bursts merged with an existing one (Count)
[...]
system.mem_ctrls.dram.bwRead::cpu.inst         119503                       # Total read bandwidth from this memory ((Byte/Second))
system.mem_ctrls.dram.bwRead::cpu.data        1438355                       # Total read bandwidth from this memory ((Byte/Second))
system.mem_ctrls.dram.bwRead::total           1557858                       # Total read bandwidth from this memory ((Byte/Second))
system.mem_ctrls.dram.bwInstRead::cpu.inst       119503                       # Instruction read bandwidth from this memory ((Byte/Second))
system.mem_ctrls.dram.bwInstRead::total        119503                       # Instruction read bandwidth from this memory ((Byte/Second))
system.mem_ctrls.dram.bwWrite::writebacks       542333                       # Write bandwidth from this memory ((Byte/Second))
system.mem_ctrls.dram.bwWrite::total           542333                       # Write bandwidth from this memory ((Byte/Second))
system.mem_ctrls.dram.bwTotal::writebacks       542333                       # Total bandwidth to/from this memory ((Byte/Second))
system.mem_ctrls.dram.bwTotal::cpu.inst        119503                       # Total bandwidth to/from this memory ((Byte/Second))
system.mem_ctrls.dram.bwTotal::cpu.data       1438355                       # Total bandwidth to/from this memory ((Byte/Second))
system.mem_ctrls.dram.bwTotal::total          2100191                       # Total bandwidth to/from this memory ((Byte/Second))
system.mem_ctrls.dram.readBursts                 9351                       # Number of DRAM read bursts (Count)
system.mem_ctrls.dram.writeBursts                3494                       # Number of DRAM write bursts (Count)
system.mem_ctrls.dram.perBankRdBursts::0          437                       # Per bank write bursts (Count)
system.mem_ctrls.dram.perBankRdBursts::1          483                       # Per bank write bursts (Count)
system.mem_ctrls.dram.perBankRdBursts::2          392                       # Per bank write bursts (Count)
system.mem_ctrls.dram.perBankRdBursts::3          376                       # Per bank write bursts (Count)
system.mem_ctrls.dram.perBankRdBursts::4          377                       # Per bank write bursts (Count)
system.mem_ctrls.dram.perBankRdBursts::5          467                       # Per bank write bursts (Count)
system.mem_ctrls.dram.perBankRdBursts::6          317                       # Per bank write bursts (Count)
system.mem_ctrls.dram.perBankRdBursts::7          282                       # Per bank write bursts (Count)
system.mem_ctrls.dram.perBankRdBursts::8          227                       # Per bank write bursts (Count)
system.mem_ctrls.dram.perBankRdBursts::9          302                       # Per bank write bursts (Count)
system.mem_ctrls.dram.perBankRdBursts::10          645                       # Per bank write bursts (Count)
system.mem_ctrls.dram.perBankRdBursts::11         1061                       # Per bank write bursts (Count)
system.mem_ctrls.dram.perBankRdBursts::12         1116                       # Per bank write bursts (Count)
system.mem_ctrls.dram.perBankRdBursts::13         1069                       # Per bank write bursts (Count)
system.mem_ctrls.dram.perBankRdBursts::14         1192                       # Per bank write bursts (Count)
system.mem_ctrls.dram.perBankRdBursts::15          608                       # Per bank write bursts (Count)
system.mem_ctrls.dram.perBankWrBursts::0          271                       # Per bank write bursts (Count)
system.mem_ctrls.dram.perBankWrBursts::1          308                       # Per bank write bursts (Count)
system.mem_ctrls.dram.perBankWrBursts::2          266                       # Per bank write bursts (Count)
system.mem_ctrls.dram.perBankWrBursts::3          259                       # Per bank write bursts (Count)
system.mem_ctrls.dram.perBankWrBursts::4          259                       # Per bank write bursts (Count)
system.mem_ctrls.dram.perBankWrBursts::5          312                       # Per bank write bursts (Count)
system.mem_ctrls.dram.perBankWrBursts::6          199                       # Per bank write bursts (Count)
system.mem_ctrls.dram.perBankWrBursts::7          133                       # Per bank write bursts (Count)
system.mem_ctrls.dram.perBankWrBursts::8          146                       # Per bank write bursts (Count)
system.mem_ctrls.dram.perBankWrBursts::9          205                       # Per bank write bursts (Count)
system.mem_ctrls.dram.perBankWrBursts::10          137                       # Per bank write bursts (Count)
system.mem_ctrls.dram.perBankWrBursts::11          155                       # Per bank write bursts (Count)
system.mem_ctrls.dram.perBankWrBursts::12          182                       # Per bank write bursts (Count)
system.mem_ctrls.dram.perBankWrBursts::13          174                       # Per bank write bursts (Count)
system.mem_ctrls.dram.perBankWrBursts::14          224                       # Per bank write bursts (Count)
system.mem_ctrls.dram.perBankWrBursts::15          264                       # Per bank write bursts (Count)
system.mem_ctrls.dram.totQLat               308477250                       # Total ticks spent queuing (Tick)
system.mem_ctrls.dram.totBusLat              46755000                       # Total ticks spent in databus transfers (Tick)
system.mem_ctrls.dram.totMemAccLat          483808500                       # Total ticks spent from burst creation until serviced by the DRAM (Tick)
system.mem_ctrls.dram.avgQLat                32988.69                       # Average queueing delay per DRAM burst ((Tick/Count))
system.mem_ctrls.dram.avgBusLat               5000.00                       # Average bus latency per DRAM burst ((Tick/Count))
system.mem_ctrls.dram.avgMemAccLat           51738.69                       # Average memory access latency per DRAM burst ((Tick/Count))
system.mem_ctrls.dram.readRowHits                4335                       # Number of row buffer hits during reads (Count)
system.mem_ctrls.dram.writeRowHits               3158                       # Number of row buffer hits during writes (Count)
system.mem_ctrls.dram.readRowHitRate            46.36                       # Row buffer hit rate for reads (Ratio)
system.mem_ctrls.dram.writeRowHitRate           90.38                       # Row buffer hit rate for writes (Ratio)
system.mem_ctrls.dram.bytesPerActivate::samples         5348                       # Bytes accessed per row activation (Byte)
system.mem_ctrls.dram.bytesPerActivate::mean   153.645475                       # Bytes accessed per row activation (Byte)
system.mem_ctrls.dram.bytesPerActivate::gmean    87.037911                       # Bytes accessed per row activation (Byte)
system.mem_ctrls.dram.bytesPerActivate::stdev   260.173612                       # Bytes accessed per row activation (Byte)
system.mem_ctrls.dram.bytesPerActivate::0-127         4572     85.49%     85.49% # Bytes accessed per row activation (Byte)
system.mem_ctrls.dram.bytesPerActivate::128-255          164      3.07%     88.56% # Bytes accessed per row activation (Byte)
system.mem_ctrls.dram.bytesPerActivate::256-383           73      1.36%     89.92% # Bytes accessed per row activation (Byte)
system.mem_ctrls.dram.bytesPerActivate::384-511           51      0.95%     90.88% # Bytes accessed per row activation (Byte)
system.mem_ctrls.dram.bytesPerActivate::512-639           40      0.75%     91.62% # Bytes accessed per row activation (Byte)
system.mem_ctrls.dram.bytesPerActivate::640-767           31      0.58%     92.20% # Bytes accessed per row activation (Byte)
system.mem_ctrls.dram.bytesPerActivate::768-895           22      0.41%     92.61% # Bytes accessed per row activation (Byte)
system.mem_ctrls.dram.bytesPerActivate::896-1023           16      0.30%     92.91% # Bytes accessed per row activation (Byte)
system.mem_ctrls.dram.bytesPerActivate::1024-1151          379      7.09%    100.00% # Bytes accessed per row activation (Byte)
system.mem_ctrls.dram.bytesPerActivate::total         5348                       # Bytes accessed per row activation (Byte)
system.mem_ctrls.dram.dramBytesRead            598464                       # Total bytes read (Byte)
system.mem_ctrls.dram.dramBytesWritten         223616                       # Total bytes written (Byte)
system.mem_ctrls.dram.avgRdBW                1.554201                       # Average DRAM read bandwidth in MiBytes/s ((Byte/Second))
system.mem_ctrls.dram.avgWrBW                0.580727                       # Average DRAM write bandwidth in MiBytes/s ((Byte/Second))
system.mem_ctrls.dram.peakBW                 12800.00                       # Theoretical peak bandwidth in MiByte/s ((Byte/Second))
system.mem_ctrls.dram.busUtil                    0.02                       # Data bus utilization in percentage (Ratio)
system.mem_ctrls.dram.busUtilRead                0.01                       # Data bus utilization in percentage for reads (Ratio)
system.mem_ctrls.dram.busUtilWrite               0.00                       # Data bus utilization in percentage for writes (Ratio)
system.mem_ctrls.dram.pageHitRate               58.33                       # Row buffer hit rate, read and write combined (Ratio)
system.mem_ctrls.dram.power_state.pwrStateResidencyTicks::UNDEFINED 385062077000                       # Cumulative time (in ticks) in various power states (Tick)
system.mem_ctrls.dram.rank0.actEnergy         4234020                       # Energy for activate commands per rank (pJ) (Joule)
system.mem_ctrls.dram.rank0.preEnergy         2239050                       # Energy for precharge commands per rank (pJ) (Joule)
system.mem_ctrls.dram.rank0.readEnergy       22355340                       # Energy for read commands per rank (pJ) (Joule)
system.mem_ctrls.dram.rank0.writeEnergy      10476540                       # Energy for write commands per rank (pJ) (Joule)
system.mem_ctrls.dram.rank0.refreshEnergy 30396406560.000004                       # Energy for refresh commands per rank (pJ) (Joule)
system.mem_ctrls.dram.rank0.actBackEnergy   5988812160                       # Energy for active background per rank (pJ) (Joule)
system.mem_ctrls.dram.rank0.preBackEnergy 142820627520                       # Energy for precharge background per rank (pJ) (Joule)
system.mem_ctrls.dram.rank0.actPowerDownEnergy            0                       # Energy for active power-down per rank (pJ) (Joule)
system.mem_ctrls.dram.rank0.prePowerDownEnergy            0                       # Energy for precharge power-down per rank (pJ) (Joule)
system.mem_ctrls.dram.rank0.selfRefreshEnergy            0                       # Energy for self refresh per rank (pJ) (Joule)
system.mem_ctrls.dram.rank0.totalEnergy  179245151190                       # Total energy per rank (pJ) (Joule)
system.mem_ctrls.dram.rank0.averagePower   465.496765                       # Core power per rank (mW) (Watt)
system.mem_ctrls.dram.rank0.totalIdleTime            0                       # Total Idle time Per DRAM Rank (Tick)
system.mem_ctrls.dram.rank0.pwrStateTime::IDLE 371244559500                       # Time in different power states (Tick)
system.mem_ctrls.dram.rank0.pwrStateTime::REF  12858040000                       # Time in different power states (Tick)
system.mem_ctrls.dram.rank0.pwrStateTime::SREF            0                       # Time in different power states (Tick)
system.mem_ctrls.dram.rank0.pwrStateTime::PRE_PDN            0                       # Time in different power states (Tick)
system.mem_ctrls.dram.rank0.pwrStateTime::ACT    959477500                       # Time in different power states (Tick)
system.mem_ctrls.dram.rank0.pwrStateTime::ACT_PDN            0                       # Time in different power states (Tick)
system.mem_ctrls.dram.rank1.actEnergy        33979260                       # Energy for activate commands per rank (pJ) (Joule)
system.mem_ctrls.dram.rank1.preEnergy        18056610                       # Energy for precharge commands per rank (pJ) (Joule)
system.mem_ctrls.dram.rank1.readEnergy       44410800                       # Energy for read commands per rank (pJ) (Joule)
system.mem_ctrls.dram.rank1.writeEnergy       7762140                       # Energy for write commands per rank (pJ) (Joule)
system.mem_ctrls.dram.rank1.refreshEnergy 30396406560.000004                       # Energy for refresh commands per rank (pJ) (Joule)
system.mem_ctrls.dram.rank1.actBackEnergy  16094938950                       # Energy for active background per rank (pJ) (Joule)
system.mem_ctrls.dram.rank1.preBackEnergy 134310204960                       # Energy for precharge background per rank (pJ) (Joule)
system.mem_ctrls.dram.rank1.actPowerDownEnergy            0                       # Energy for active power-down per rank (pJ) (Joule)
system.mem_ctrls.dram.rank1.prePowerDownEnergy            0                       # Energy for precharge power-down per rank (pJ) (Joule)
system.mem_ctrls.dram.rank1.selfRefreshEnergy            0                       # Energy for self refresh per rank (pJ) (Joule)
system.mem_ctrls.dram.rank1.totalEnergy  180905759280                       # Total energy per rank (pJ) (Joule)
system.mem_ctrls.dram.rank1.averagePower   469.809337                       # Core power per rank (mW) (Watt)
system.mem_ctrls.dram.rank1.totalIdleTime            0                       # Total Idle time Per DRAM Rank (Tick)
system.mem_ctrls.dram.rank1.pwrStateTime::IDLE 349024200000                       # Time in different power states (Tick)
system.mem_ctrls.dram.rank1.pwrStateTime::REF  12858040000                       # Time in different power states (Tick)
system.mem_ctrls.dram.rank1.pwrStateTime::SREF            0                       # Time in different power states (Tick)
system.mem_ctrls.dram.rank1.pwrStateTime::PRE_PDN            0                       # Time in different power states (Tick)
system.mem_ctrls.dram.rank1.pwrStateTime::ACT  23179837000                       # Time in different power states (Tick)
system.mem_ctrls.dram.rank1.pwrStateTime::ACT_PDN            0                       # Time in different power states (Tick)
system.mem_ctrls.power_state.pwrStateResidencyTicks::UNDEFINED 385062077000                       # Cumulative time (in ticks) in various power states (Tick)
system.membus.transDist::ReadResp                6141                       # Transaction distribution (Count)
system.membus.transDist::WritebackDirty          3263                       # Transaction distribution (Count)
system.membus.transDist::WritebackClean           258                       # Transaction distribution (Count)
system.membus.transDist::CleanEvict              4888                       # Transaction distribution (Count)
system.membus.transDist::ReadExReq               3232                       # Transaction distribution (Count)
system.membus.transDist::ReadExResp              3232                       # Transaction distribution (Count)
system.membus.transDist::ReadCleanReq             719                       # Transaction distribution (Count)
system.membus.transDist::ReadSharedReq           5422                       # Transaction distribution (Count)
system.membus.transDist::InvalidateReq              9                       # Transaction distribution (Count)
system.membus.pktCount_system.cpu.icache.mem_side_port::system.mem_ctrls.port         1696                       # Packet count per connected requestor and responder (Count)
system.membus.pktCount_system.cpu.dcache.mem_side_port::system.mem_ctrls.port        25468                       # Packet count per connected requestor and responder (Count)
system.membus.pktCount::total                   27164                       # Packet count per connected requestor and responder (Count)
system.membus.pktSize_system.cpu.icache.mem_side_port::system.mem_ctrls.port        62528                       # Cumulative packet size per connected requestor and responder (Byte)
system.membus.pktSize_system.cpu.dcache.mem_side_port::system.mem_ctrls.port       762688                       # Cumulative packet size per connected requestor and responder (Byte)
system.membus.pktSize::total                   825216                       # Cumulative packet size per connected requestor and responder (Byte)
system.membus.snoops                                0                       # Total snoops (Count)
system.membus.snoopTraffic                          0                       # Total snoop traffic (Byte)
system.membus.snoopFanout::samples               9382                       # Request fanout histogram (Count)
system.membus.snoopFanout::mean              0.000107                       # Request fanout histogram (Count)
system.membus.snoopFanout::stdev             0.010324                       # Request fanout histogram (Count)
system.membus.snoopFanout::underflows               0      0.00%      0.00% # Request fanout histogram (Count)
system.membus.snoopFanout::0                     9381     99.99%     99.99% # Request fanout histogram (Count)
system.membus.snoopFanout::1                        1      0.01%    100.00% # Request fanout histogram (Count)
system.membus.snoopFanout::2                        0      0.00%    100.00% # Request fanout histogram (Count)
system.membus.snoopFanout::overflows                0      0.00%    100.00% # Request fanout histogram (Count)
system.membus.snoopFanout::min_value                0                       # Request fanout histogram (Count)
system.membus.snoopFanout::max_value                1                       # Request fanout histogram (Count)
system.membus.snoopFanout::total                 9382                       # Request fanout histogram (Count)
system.membus.power_state.pwrStateResidencyTicks::UNDEFINED 385062077000                       # Cumulative time (in ticks) in various power states (Tick)
system.membus.reqLayer0.occupancy            32400000                       # Layer occupancy (ticks) (Tick)
system.membus.reqLayer0.utilization               0.0                       # Layer utilization (Ratio)
system.membus.respLayer1.occupancy            3831250                       # Layer occupancy (ticks) (Tick)
system.membus.respLayer1.utilization              0.0                       # Layer utilization (Ratio)
system.membus.respLayer2.occupancy           46495750                       # Layer occupancy (ticks) (Tick)
system.membus.respLayer2.utilization              0.0                       # Layer utilization (Ratio)
system.membus.snoop_filter.totRequests          17791                       # Total number of requests made to the snoop filter. (Count)
system.membus.snoop_filter.hitSingleRequests         8409                       # Number of requests hitting in the snoop filter with a single holder of the requested data. (Count)
system.membus.snoop_filter.hitMultiRequests            1                       # Number of requests hitting in the snoop filter with multiple (>1) holders of the requested data. (Count)
system.membus.snoop_filter.totSnoops                0                       # Total number of snoops made to the snoop filter. (Count)
system.membus.snoop_filter.hitSingleSnoops            0                       # Number of snoops hitting in the snoop filter with a single holder of the requested data. (Count)
system.membus.snoop_filter.hitMultiSnoops            0                       # Number of snoops hitting in the snoop filter with multiple (>1) holders of the requested data. (Count)
system.voltage_domain.voltage                       1                       # Voltage in Volts (Volt)
system.workload.inst.arm                            0                       # number of arm instructions executed (Count)
system.workload.inst.quiesce                        0                       # number of quiesce instructions executed (Count)

---------- End Simulation Statistics   ----------
